<?xml version="1.0" encoding="UTF-8"?>

<!-- generated on 2026-03-05T20:04:53.470101+05:30 by Eclipse SUMO netedit 1.26.0
-->

<additional xmlns:xsi="http://www.w3.org/2001/XMLSchema-instance" xsi:noNamespaceSchemaLocation="http://sumo.dlr.de/xsd/additional_file.xsd">
    <!-- StoppingPlaces -->
    <busStop id="bs_0" lane="E0_0" startPos="0.00" endPos="5.57"/>
</additional>